20

C 1.190782 -0.695329 -1.402765
C 1.757471 -0.618157 -0.085183
C 1.053816 -1.322799 0.931360
C -0.134671 -2.039234 0.570196
Fe -0.260007 -0.014268 -0.017082
C 0.093624 1.708883 -0.390393
C -1.155367 0.417904 1.481988
C -1.607798 -0.350738 -1.142111
O 0.328009 2.811216 -0.658841
O -1.741204 0.670433 2.448632
O -2.464508 -0.599562 -1.881014
H 0.848979 -1.647684 -1.802262
H 1.343223 -1.189282 1.973056
H -0.756175 -2.415137 1.381247
H 1.598163 -0.025304 -2.159538
H -0.145802 -2.666905 -0.318411
C 2.970162 0.225703 0.233012
H 2.971712 0.565865 1.275450
H 3.032983 1.103252 -0.420573
H 3.880612 -0.367924 0.068324