19

C -1.147912 0.836226 -1.394458
C -1.600392 -0.399361 -0.860934
C -2.638023 -0.498176 0.185806
C -3.514195 0.476755 0.509910
Fe 0.372453 0.066850 -0.113486
C 1.949838 -0.612664 -0.653582
C 0.628421 -0.786340 1.467664
C 0.997700 1.764947 0.315428
O 2.934120 -1.030023 -1.063981
O 0.716023 -1.301937 2.485728
O 1.402694 2.800258 0.578978
H -1.653228 1.776252 -1.190404
H -2.718097 -1.466407 0.680818
H -4.279306 0.303505 1.263632
H -0.558608 0.820075 -2.316872
H -3.517802 1.454050 0.030052
C -0.722047 -1.503379 -1.062764
H -0.914902 -2.447381 -0.556912
H -0.184877 -1.592623 -2.007890