18

C -1.610408 1.263022 -0.608546
C -1.710965 -0.002015 -1.267422
C -1.605319 -1.267998 -0.611401
C -1.448679 -1.467064 0.773103
Fe 0.036081 0.000075 -0.005059
C 1.145296 1.288317 -0.705175
C 1.150572 -1.283791 -0.704567
C 0.733436 0.001194 1.672808
O 1.841646 2.090726 -1.129406
O 1.152033 0.001818 2.738920
H -1.743318 -0.000837 -2.355032
H -1.426389 -2.116684 -1.272730
H -1.119382 -2.453948 1.093166
H -2.012400 -0.920361 1.515896
C -1.455005 1.459902 0.776305
H -1.434687 2.113841 -1.267993
H -1.129697 2.447408 1.098521
H -2.016205 0.909032 1.517927