20

C -1.710951 0.558444 -0.642468
C -1.040165 -0.259083 -1.623034
C -0.497794 -1.518774 -1.253998
C -0.577661 -1.961971 0.106721
Fe 0.264559 -0.015051 -0.018976
C 0.908504 1.568535 -0.576119
C 1.925553 -0.707232 0.087693
C -0.104504 0.341850 1.689359
O 1.305495 2.598322 -0.927893
O 2.983601 -1.168713 0.181649
O -0.387004 0.563660 2.791360
H -0.777869 0.144325 -2.600955
H 0.143610 -2.036467 -1.966318
H 0.053905 -2.805181 0.383077
H -1.500994 -1.909001 0.668711
H -1.765093 1.607890 -0.942464
C -2.959456 0.172758 0.143297
H -3.845695 0.483211 -0.430274
H -3.000814 0.692491 1.108285
H -3.063475 -0.899252 0.323688