20

C 1.196409 0.183955 -1.628867
C 1.778978 -0.351940 -0.446951
C 1.166336 -1.545026 0.074135
C 0.050790 -2.098434 -0.609357
Fe -0.261951 -0.030810 -0.028456
C -0.023600 0.595059 1.635220
C -1.899976 -0.686589 0.130672
C -0.839617 1.447410 -0.813326
O 0.100011 1.014005 2.709936
O -2.973229 -1.116233 0.248446
O -1.206104 2.426541 -1.320646
H 0.825786 -0.452051 -2.428042
H 1.496078 -1.944793 1.031558
H -0.488611 -2.905976 -0.118775
H 1.542635 1.161901 -1.960271
H -0.000097 -2.116981 -1.694929
C 2.950446 0.300262 0.249811
H 2.957842 0.090639 1.325873
H 2.942693 1.387021 0.108446
H 3.890375 -0.081387 -0.173912