19

C 1.530213 -0.076891 -1.333858
C 1.821876 -0.376078 0.080989
C 1.174731 -1.495525 0.683631
C 0.179810 -2.158309 -0.065039
Fe -0.173683 -0.022239 -0.009429
C -0.132541 1.806950 0.041983
C -1.338424 -0.126191 1.409639
C -1.473837 -0.190526 -1.277907
O -0.109572 2.953278 0.061842
O -2.053305 -0.209356 2.300298
O -2.248742 -0.316433 -2.112184
H 1.594998 -0.883710 -2.068763
H 1.340362 -1.708301 1.739146
H -0.440095 -2.888340 0.450914
H 1.800330 0.903066 -1.728254
H 0.287038 -2.324626 -1.134744
C 2.966911 0.386701 0.451098
H 3.922123 0.149449 -0.021588
H 2.931531 1.289971 1.065591