19

C -2.122985 -0.522391 0.130430
C -1.443485 -0.876872 -1.130593
C -0.409637 -1.830580 -1.013505
C 0.085562 -2.150176 0.288822
Fe 0.074119 -0.017353 0.016893
C -0.014569 1.701110 -0.667755
C 1.755188 -0.132723 -0.652768
C 0.675632 0.266864 1.728309
O 0.004174 2.760728 -1.102599
O 2.814924 -0.223200 -1.076034
O 1.017717 0.420661 2.809671
H -2.299702 -1.309191 0.861733
H -1.781181 -0.501435 -2.094041
H 0.146127 -2.120127 -1.904562
H 1.026759 -2.693199 0.347777
H -0.586335 -2.355518 1.117592
C -2.486258 0.749723 0.475245
H -2.901280 0.954810 1.461126
H -2.462693 1.580600 -0.226261