19

C -0.655742 -1.374935 -1.355161
C -0.972545 -1.515483 0.038159
C -1.753230 -0.467029 0.638320
Fe 0.269273 -0.004025 -0.000869
C 1.925688 -0.257423 -0.653155
C 0.697660 0.795614 1.549976
C -0.177934 1.461228 -0.939604
O 2.987177 -0.442954 -1.074603
O 0.961004 1.293526 2.561090
O -0.483630 2.396264 -1.549356
H -1.380887 -0.944930 -2.041227
H -1.798884 -0.500726 1.728480
H 0.028163 -2.091416 -1.805976
C 0.140115 -1.949382 0.840296
H 0.033356 -1.982183 1.923301
C -2.964203 0.184117 0.004661
H -2.893314 0.260191 -1.085128
H -3.115316 1.195008 0.402015
H -3.869916 -0.395688 0.239417