19

C -1.783295 -0.376466 0.006355
C -1.176954 -1.074256 -1.164551
C -0.128570 -1.954234 -0.821273
C 0.221462 -2.104698 0.549123
Fe 0.169774 -0.014708 -0.017295
C -0.064872 1.637534 -0.746226
C 1.947730 -0.011504 -0.522743
C 0.421572 0.468430 1.712530
O -0.248655 2.678410 -1.195924
O 3.050841 -0.026447 -0.831843
O 0.525204 0.745886 2.821783
H -2.190945 -1.224875 0.655794
H -1.518493 -0.900592 -2.182070
H 0.503402 -2.341857 -1.619542
H 1.170896 -2.578250 0.789383
H -0.549031 -2.259441 1.303020
C -3.005243 0.311431 0.108279
H -3.954617 -0.190947 -0.110315
H -3.085447 1.318162 0.532306