126

Pd 1.643491 0.63531 -0.395389
P 3.749217 0.807972 -1.479414
Pd -2.056456 -1.25607 -0.604433
P -3.920644 -1.426649 0.821275
I 0.208103 -0.927879 -2.1265
I -0.672351 0.395347 1.032453
I 2.184754 2.419049 1.583347
I -2.726119 -3.083089 -2.484951
C 5.113996 0.09958 -0.45064
C 6.435908 0.491485 -0.822589
C 4.946337 -0.844251 0.567874
C 7.55054 -0.030243 -0.223981
H 6.566388 1.225678 -1.604129
C 6.11652 -1.452906 1.157913
C 3.633915 -1.286761 1.139965
C 7.426591 -1.029782 0.770305
H 8.54105 0.304463 -0.520711
C 3.296475 -0.918105 2.486878
C 2.821534 -2.178832 0.464893
C 1.653389 -2.716961 1.053538
H 3.098745 -2.502472 -0.52664
C 1.306364 -2.363309 2.332583
H 1.031294 -3.392587 0.474726
H 0.407814 -2.761681 2.793581
C -4.577908 0.258835 1.230579
C -5.294621 0.362352 2.460819
C -4.546928 1.367376 0.368887
C -5.992023 1.485902 2.81512
H -5.295537 -0.477813 3.139396
C -5.37467 2.509768 0.681656
C -3.661915 1.518443 -0.830924
C -6.085503 2.578078 1.920525
H -6.507596 1.533997 3.770582
C -2.63041 2.522763 -0.807239
C -3.837493 0.770989 -1.980755
C -1.800372 2.688374 -1.96301
C -3.028418 0.95479 -3.125559
H -4.626911 0.040844 -2.027213
C -2.02906 1.893654 -3.115487
H -3.189459 0.31917 -3.990028
H -1.383296 2.027455 -3.979086
C 4.169359 2.666949 -1.851273
C 5.050237 2.970484 -3.079987
C 2.804321 3.341438 -2.102634
C 4.878509 3.313623 -0.644156
H 6.062051 2.567864 -2.998096
H 4.613989 2.637911 -4.022433
H 5.1495 4.061424 -3.138759
H 2.147483 3.277992 -1.236416
H 2.969907 4.401602 -2.333844
H 2.284425 2.888733 -2.953161
H 4.803153 4.403419 -0.746828
H 4.433732 3.042651 0.309623
H 5.939382 3.054471 -0.615326
C 3.965348 -0.189254 -3.124315
C 3.694987 -1.675311 -2.832958
C 2.969072 0.345346 -4.170379
C 5.387372 -0.162089 -3.72517
H 4.444635 -2.078015 -2.145267
H 2.70449 -1.861061 -2.426692
H 3.774196 -2.232978 -3.774014
H 3.277488 1.313764 -4.570588
H 2.92264 -0.357358 -5.011282
H 1.958226 0.4525 -3.775201
H 5.367402 -0.780654 -4.631161
H 5.72929 0.826311 -4.019795
H 6.122056 -0.601876 -3.047654
C -3.339456 -2.330176 2.442499
C -4.430388 -3.002534 3.303038
C -2.373334 -3.431092 1.951411
C -2.564941 -1.383291 3.381304
H -5.097274 -2.285215 3.787601
H -5.036212 -3.725757 2.761855
H -3.918862 -3.548252 4.105113
H -1.54411 -3.00442 1.380913
H -1.96403 -3.957613 2.823306
H -2.86892 -4.167275 1.313425
H -2.392004 -1.909382 4.32853
H -1.592033 -1.114457 2.979463
H -3.106166 -0.461856 3.608527
C -5.549566 -2.308551 0.237406
C -5.981327 -1.722427 -1.116415
C -5.322715 -3.822773 0.069884
C -6.740121 -2.066743 1.190714
H -6.216994 -0.657948 -1.029149
H -5.233551 -1.878778 -1.893387
H -6.89903 -2.234179 -1.431222
H -5.202529 -4.343689 1.020479
H -6.206231 -4.24796 -0.422159
H -4.460857 -4.040775 -0.559886
H -7.593443 -2.630079 0.793197
H -6.575002 -2.408781 2.210228
H -7.026578 -1.013812 1.222207
C -2.35955 3.334217 0.328359
H -2.956506 3.208967 1.223051
C -0.743203 3.635691 -1.930961
H -0.114751 3.735303 -2.811746
C -0.506711 4.397959 -0.811965
H 0.317593 5.103976 -0.791676
C -1.329732 4.245669 0.326858
H -1.129035 4.833943 1.216791
C -5.525331 3.594877 -0.228204
H -5.01891 3.553938 -1.183989
C -6.307961 4.683327 0.083272
C -6.979318 4.756883 1.325932
H -6.411273 5.493024 -0.633008
H -7.586134 5.62594 1.563028
C -6.870785 3.720641 2.223242
H -7.392077 3.75394 3.176367
C 2.109253 -1.459723 3.076087
C 6.017256 -2.494167 2.124313
H 5.038603 -2.850152 2.418526
C 7.141789 -3.057459 2.683896
C 8.432114 -2.612898 2.31399
H 7.035923 -3.852668 3.415941
C 8.567847 -1.620631 1.371698
H 9.310785 -3.062028 2.767828
H 9.552169 -1.27565 1.065932
C 1.762179 -1.089923 4.401289
H 0.849416 -1.496937 4.829513
C 2.564783 -0.244972 5.132858
C 3.750181 0.271697 4.560999
H 2.291137 0.027374 6.148196
C 4.099762 -0.047876 3.269032
H 4.378768 0.942736 5.139096
H 4.99384 0.379315 2.830887