81

Pd 0.000304 2.1e-05 -0.001044
P 2.318699 0.000205 -0.000149
P -2.318207 -0.000222 -0.000551
C 3.032057 1.675296 0.503663
C 4.492249 1.978703 0.118278
C 2.078137 2.770088 -0.006316
H 2.962456 1.6544 1.601791
C 5.040517 3.266037 0.748393
H 4.567482 2.050255 -0.974838
H 5.13959 1.153177 0.42105
H 2.102056 2.827022 -1.102203
H 1.046779 2.550209 0.285969
H 6.104731 3.386523 0.515656
H 4.939005 3.240103 1.840598
C 3.031831 -1.273336 1.199184
C 4.491725 -1.090796 1.655441
C 2.077352 -1.379224 2.401837
H 2.962827 -2.213991 0.632105
C 5.040262 -2.280536 2.454505
H 4.566091 -0.180403 2.26481
H 5.139433 -0.939057 0.789621
H 2.101143 -0.458767 2.999316
H 1.046121 -1.522256 2.064832
H 6.104201 -2.138661 2.676183
H 4.93988 -3.212958 1.884942
C 3.03308 -0.40146 -1.702245
C 4.493014 -0.887698 -1.771378
C 2.079149 -1.390038 -2.396048
H 2.964419 0.560006 -2.233331
C 5.042055 -0.985958 -3.200995
H 4.567379 -1.870221 -1.286839
H 5.140423 -0.213139 -1.207448
H 2.102644 -2.367742 -1.8977
H 1.047865 -1.026712 -2.352091
H 6.106067 -1.248548 -3.188382
H 4.941557 -0.027001 -3.724632
C -3.031844 -1.727394 -0.276189
C -4.493096 -1.833013 -0.752046
C -2.079881 -2.489986 -1.214711
H -2.959851 -2.187365 0.721028
C -5.041506 -3.266202 -0.742011
H -4.570233 -1.423083 -1.767772
H -5.13912 -1.220526 -0.119798
H -2.106571 -2.063532 -2.225767
H -1.047663 -2.419167 -0.858379
H -6.106032 -3.273781 -1.002709
H -4.938827 -3.716569 0.253236
C -3.032499 1.102273 -1.357911
C -4.49284 1.56929 -1.209294
C -2.079164 2.294937 -1.551212
H -2.962816 0.468072 -2.254641
C -5.042089 2.278111 -2.4546
H -4.567728 2.243904 -0.346161
H -5.139776 0.716386 -0.994206
H -2.102869 2.957313 -0.676293
H -1.047734 1.949337 -1.670295
H -6.106147 2.508994 -2.329264
H -4.941476 1.641378 -3.342484
C -3.030978 0.624124 1.633589
C -4.49195 0.264763 1.963826
C -2.078322 0.192299 2.762588
H -2.959143 1.717763 1.533594
C -5.039489 0.989752 3.200562
H -4.568939 -0.819888 2.116435
H -5.13856 0.506328 1.117809
H -2.104647 -0.896611 2.898187
H -1.046292 0.465915 2.522714
H -6.103858 0.767536 3.338304
H -4.937119 2.076883 3.093035
H -2.355745 0.655625 3.715717
H -4.520052 0.695086 4.117441
H 2.357506 -1.541443 -3.444702
H 4.522332 -1.745219 -3.793207
H 2.354957 -2.211796 3.057461
H 4.520125 -2.414577 3.40781
H 2.356083 3.754125 0.386752
H 4.521033 4.158448 0.3864
H -2.357914 2.888454 -2.428776
H -4.522571 3.219254 -2.658695
H -2.357615 -3.547052 -1.289266
H -4.522869 -3.913302 -1.455859