84

Pd -1.332314 0.071934 0.041918
P -3.633249 0.002904 0.027078
Pd 1.332232 0.071594 -0.041948
P 3.63318 0.002679 -0.027147
I 0.000301 2.441273 3.5e-05
I -0.000418 -2.305068 3.1e-05
C -4.150802 -1.287454 -1.233635
C -4.345014 1.671736 -0.457606
C -4.309919 -0.480424 1.708436
C -5.609216 -1.783874 -1.218399
C -3.669662 -0.821226 -2.619355
H -3.516125 -2.136496 -0.946601
C -5.788401 1.709431 -0.996974
C -4.095613 2.668252 0.688109
H -3.681314 1.961485 -1.283567
C -5.810915 -0.245605 1.972576
C -3.857647 -1.915968 2.027911
H -3.753262 0.192098 2.376065
C -5.856526 -2.944156 -2.191097
H -6.299541 -0.965252 -1.445127
H -5.857456 -2.125349 -0.209188
H -4.284737 -0.001816 -3.008029
H -2.630789 -0.47731 -2.572755
C -6.215186 3.103323 -1.47428
H -6.492756 1.352806 -0.237977
H -5.869969 1.018706 -1.841097
H -4.794215 2.514466 1.517718
H -3.076223 2.577451 1.074698
C -6.209925 -0.498375 3.431976
H -6.416902 -0.877515 1.315096
H -6.064417 0.788356 1.723423
H -4.419455 -2.653252 1.443504
H -2.793387 -2.05206 1.813812
H -6.867249 -3.346457 -2.060726
H -5.145564 -3.761191 -2.016831
H -7.196116 3.059381 -1.960319
H -5.499088 3.50619 -2.201144
H -7.254066 -0.212157 3.600029
H -5.587288 0.090459 4.116933
C 4.1509 -1.285761 1.235421
C 4.344879 1.672247 0.455061
C 4.310011 -0.483094 -1.707719
C 5.609371 -1.782023 1.220715
C 3.669946 -0.817447 2.6205
H 3.516243 -2.135268 0.94971
C 5.78827 1.710745 0.994351
C 4.095453 2.667013 -0.692174
H 3.681164 1.963201 1.280586
C 5.81099 -0.248372 -1.97206
C 3.858095 -1.919235 -2.025006
H 3.753255 0.188296 -2.376404
C 5.856869 -2.941218 2.194661
H 6.299578 -0.963046 1.446536
H 5.857635 -2.124541 0.211862
H 4.285056 0.00258 3.007823
H 2.631061 -0.473623 2.573532
C 6.215069 3.105342 1.469582
H 6.492623 1.352981 0.235887
H 5.869831 1.02127 1.839502
H 4.794051 2.511978 -1.521557
H 3.076059 2.575606 -1.078612
C 6.210173 -0.502946 -3.431101
H 6.417031 -0.879329 -1.313707
H 6.064299 0.785956 -1.724225
H 4.420108 -2.655493 -1.4395
H 2.793876 -2.055274 -1.810686
H 6.867634 -3.343538 2.064677
H 5.145998 -3.758528 2.021317
H 7.195985 3.062106 1.955713
H 5.49896 3.509315 2.195821
H 7.254259 -0.216694 -3.59944
H 5.587452 0.084851 -4.116871
H 4.219457 3.695598 -0.34086
H 6.287711 3.816325 0.640797
H -4.21964 3.696298 0.335227
H -6.287788 3.81555 -0.64656
H -3.714052 -1.643077 -3.340113
H -5.757612 -2.632055 -3.235415
H -4.014838 -2.142105 3.086804
H -6.107801 -1.552087 3.709183
H 3.714483 -1.638194 3.342505
H 5.757973 -2.627997 3.238645
H 4.015315 -2.146933 -3.083558
H 6.108331 -1.55704 -3.706955