41

Pd 2.447422 -0.000498 -0.000352
P 0.207794 0.000104 -0.00017
C -0.506391 -0.344023 1.71738
C -1.968618 -0.826456 1.792077
C 0.433207 -1.3112 2.457194
H -0.440315 0.636347 2.212195
C -2.530142 -0.86269 3.219977
H -2.039506 -1.828428 1.349088
H -2.611199 -0.175954 1.196337
H 0.418755 -2.303289 1.988668
H 1.464851 -0.948993 2.426706
H -3.595501 -1.119183 3.206928
H -2.428991 0.116462 3.704411
C -0.506712 -1.314878 -1.157205
C -1.969669 -1.139704 -1.610316
C 0.431647 -1.47004 -2.365967
H -0.438971 -2.233942 -0.556254
C -2.530771 -2.35854 -2.355404
H -2.042491 -0.254866 -2.256059
H -2.611261 -0.950231 -0.748211
H 0.415691 -0.567749 -2.990151
H 1.463771 -1.624029 -2.038254
H -3.596612 -2.220193 -2.569377
H -2.427636 -3.267807 -1.750205
C -0.506293 1.659981 -0.56036
C -1.969383 1.96478 -0.182247
C 0.432047 2.784218 -0.09007
H -0.438192 1.599589 -1.656734
C -2.529741 3.220972 -0.863091
H -2.042603 2.079662 0.907117
H -2.611383 1.124292 -0.451032
H 0.415533 2.873737 1.003392
H 1.464284 2.57723 -0.386815
H -3.595488 3.337392 -0.635962
H -2.426786 3.153298 -1.953262
H 0.131724 -2.317167 -2.991832
H -2.023366 -2.532614 -3.308904
H 0.133092 -1.429173 3.503765
H -2.021504 -1.600161 3.847949
H 0.132394 3.749786 -0.51102
H -2.021679 4.132834 -0.535545