19

Pd 1.129861 0.567449 0.004897
P -0.895361 -0.411776 -0.002281
I 0.526326 3.120905 -0.020885
I 2.698918 -1.555454 0.016562
C -0.793192 -1.928074 -1.088784
C -2.238637 0.763872 -0.604984
C -1.314336 -0.891599 1.753554
C -2.028416 -2.860271 -1.13547
C -0.301688 -1.543508 -2.494253
H 0.018429 -2.477448 -0.60085
C -3.379666 0.095789 -1.400319
C 6.451174 0.98663 -3.447926
H 6.697218 1.843481 -4.069779
C 7.116645 -0.206272 -3.596211
C 6.765204 -1.307657 -2.780894
H 7.903217 -0.309339 -4.338143
C 5.77532 -1.195313 -1.831494
H 7.280506 -2.255523 -2.90656
H 5.523087 -2.05721 -1.228575